
     RDKit          3D

 24 25  0  0  0  0  0  0  0  0999 V2000
    3.2597    0.6435   -0.2597 C   0  0  0  0  0  0  0  0  0  0  0  0
    2.1257   -0.2448   -0.2930 N   0  0  0  0  0  0  0  0  0  0  0  0
    2.1592   -1.5905   -0.5472 C   0  0  0  0  0  0  0  0  0  0  0  0
    0.9539   -2.1232   -0.5060 N   0  0  0  0  0  0  0  0  0  0  0  0
    0.1309   -1.0773   -0.2156 C   0  0  0  0  0  0  0  0  0  0  0  0
    0.8194    0.0896   -0.0787 C   0  0  0  0  0  0  0  0  0  0  0  0
    0.1966    1.3305    0.2246 C   0  0  0  0  0  0  0  0  0  0  0  0
    0.8265    2.3769    0.3459 O   0  0  0  0  0  0  0  0  0  0  0  0
   -1.1898    1.2198    0.3654 N   0  0  0  0  0  0  0  0  0  0  0  0
   -1.9381    0.0313    0.2314 C   0  0  0  0  0  0  0  0  0  0  0  0
   -3.1645    0.0345    0.3748 O   0  0  0  0  0  0  0  0  0  0  0  0
   -1.2336   -1.1354   -0.0676 N   0  0  0  0  0  0  0  0  0  0  0  0
   -1.9287   -2.4002   -0.2220 C   0  0  0  0  0  0  0  0  0  0  0  0
   -1.9430    2.4190    0.6762 C   0  0  0  0  0  0  0  0  0  0  0  0
    4.1714    0.0788   -0.4709 H   0  0  0  0  0  0  0  0  0  0  0  0
    3.1199    1.4151   -1.0209 H   0  0  0  0  0  0  0  0  0  0  0  0
    3.3245    1.0881    0.7364 H   0  0  0  0  0  0  0  0  0  0  0  0
    3.0764   -2.1277   -0.7539 H   0  0  0  0  0  0  0  0  0  0  0  0
   -1.5453   -3.1111    0.5168 H   0  0  0  0  0  0  0  0  0  0  0  0
   -3.0068   -2.2937   -0.0767 H   0  0  0  0  0  0  0  0  0  0  0  0
   -1.7487   -2.7861   -1.2304 H   0  0  0  0  0  0  0  0  0  0  0  0
   -2.4780    2.2685    1.6196 H   0  0  0  0  0  0  0  0  0  0  0  0
   -2.6800    2.5912   -0.1152 H   0  0  0  0  0  0  0  0  0  0  0  0
   -1.3076    3.3034    0.7667 H   0  0  0  0  0  0  0  0  0  0  0  0
  1  2  1  0
  2  3  1  0
  3  4  2  0
  4  5  1  0
  5  6  2  0
  6  7  1  0
  7  8  2  0
  7  9  1  0
  9 10  1  0
 10 11  2  0
 10 12  1  0
 12 13  1  0
  9 14  1  0
  6  2  1  0
 12  5  1  0
  1 15  1  0
  1 16  1  0
  1 17  1  0
  3 18  1  0
 13 19  1  0
 13 20  1  0
 13 21  1  0
 14 22  1  0
 14 23  1  0
 14 24  1  0
M  END
$$$$
