
     RDKit          3D

 36 35  0  0  0  0  0  0  0  0999 V2000
   -3.2922    1.1502   -1.0685 C   0  0  0  0  0  0  0  0  0  1  0  0
   -1.8430    1.6119   -0.9645 C   0  0  0  0  0  0  0  0  0  2  0  0
   -0.9299    0.5265   -0.4129 C   0  0  0  0  0  0  0  0  0  3  0  0
   -1.3547   -0.3964    0.2770 O   0  0  0  0  0  0  0  0  0  4  0  0
    0.3640    0.6397   -0.7358 N   0  0  0  0  0  0  0  0  0  5  0  0
    1.3729   -0.2959   -0.2941 C   0  0  1  0  0  0  0  0  0  6  0  0
    1.2525   -1.5967   -1.0901 C   0  0  0  0  0  0  0  0  0  7  0  0
    2.3708   -2.9257   -0.5767 S   0  0  0  0  0  0  0  0  0  8  0  0
    1.9653   -2.9579    0.6991 H   0  0  0  0  0  0  0  0  0 29  0  0
    0.2262   -1.9473   -1.0333 H   0  0  0  0  0  0  0  0  0 27  0  0
    1.4887   -1.3928   -2.1329 H   0  0  0  0  0  0  0  0  0 28  0  0
    2.7098    0.4127   -0.5602 C   0  0  0  0  0  0  0  0  0  9  0  0
    2.7638    1.1899   -1.5193 O   0  0  0  0  0  0  0  0  0 10  0  0
    3.7009    0.1291    0.2656 N   0  0  0  0  0  0  0  0  0 11  0  0
    5.0563    0.6363    0.1783 C   0  0  0  0  0  0  0  0  0 12  0  0
    5.8405    0.1113    1.4199 C   0  0  0  0  0  0  0  0  0 13  0  0
    5.1829   -0.6424    2.1760 O   0  0  0  0  0  0  0  0  0 14  0  0
    7.0123    0.4997    1.5052 O   0  0  0  0  0  1  0  0  0 15  0  0
    5.5429    0.2900   -0.7320 H   0  0  0  0  0  0  0  0  0 31  0  0
    5.0679    1.7237    0.1618 H   0  0  0  0  0  0  0  0  0 32  0  0
    3.6306   -0.4825    1.0789 H   0  0  0  0  0  0  0  0  0 30  0  0
    1.2321   -0.5049    0.7659 H   0  0  0  0  0  0  0  0  0 26  0  0
    0.7369    1.3703   -1.3254 H   0  0  0  0  0  0  0  0  0 25  0  0
   -1.4676    1.9230   -1.9395 H   0  0  0  0  0  0  0  0  0 23  0  0
   -1.7712    2.4814   -0.3078 H   0  0  0  0  0  0  0  0  0 24  0  0
   -4.0013    1.1538    0.2610 C   0  0  2  0  0  0  0  0  0 16  0  0
   -5.3023    1.1630    0.3791 C   0  0  0  0  0  0  0  0  0 17  0  0
   -6.4616    1.2105   -0.2976 O   0  0  0  0  0  0  0  0  0 18  0  0
   -6.3413    1.1342    1.2223 O   0  0  0  0  0  1  0  0  0 19  0  0
   -3.7902   -2.1557    0.0649 N   0  0  0  0  0  4  0  0  0 20  0  0
   -2.9855   -1.5503    0.2228 H   0  0  0  0  0  0  0  0  0 34  0  0
   -3.5443   -2.7767   -0.6959 H   0  0  0  0  0  0  0  0  0 35  0  0
   -3.8873   -2.7433    0.8843 H   0  0  0  0  0  0  0  0  0 36  0  0
   -3.4132    1.0628    1.1590 H   0  0  0  0  0  0  0  0  0 33  0  0
   -3.8188    1.7995   -1.7660 H   0  0  0  0  0  0  0  0  0 21  0  0
   -3.3129    0.1485   -1.4982 H   0  0  0  0  0  0  0  0  0 22  0  0
  1  2  1  0
  2  3  1  0
  3  4  2  0
  3  5  1  0
  5  6  1  0
  6  7  1  0
  7  8  1  0
  8  9  1  0
  7 10  1  0
  7 11  1  0
  6 12  1  0
 12 13  2  0
 12 14  1  0
 14 15  1  0
 15 16  1  0
 16 17  2  0
 16 18  1  0
 15 19  1  0
 15 20  1  0
 14 21  1  0
  6 22  1  1
  5 23  1  0
  2 24  1  0
  2 25  1  0
  1 26  1  0
 26 27  1  0
 27 28  2  0
 27 29  1  0
 26 30  1  0
 30 31  1  0
 30 32  1  0
 30 33  1  0
 26 34  1  1
  1 35  1  0
  1 36  1  0
M  CHG  3  18  -1  29  -1  30   1
M  END
$$$$
